Version 4
SHEET 1 880 680
WIRE 144 96 80 96
WIRE 144 112 144 96
WIRE 288 112 224 112
WIRE -512 224 -544 224
WIRE -384 224 -432 224
WIRE -288 224 -384 224
WIRE -256 224 -288 224
WIRE -144 224 -176 224
WIRE -64 224 -144 224
WIRE -32 224 -64 224
WIRE 80 224 80 96
WIRE 80 224 48 224
WIRE 128 224 80 224
WIRE -64 240 -64 224
WIRE 288 240 288 112
WIRE 288 240 192 240
WIRE 128 256 64 256
WIRE 64 272 64 256
FLAG -80 0 0
FLAG 96 -80 0
FLAG -80 -80 VCC
FLAG 96 0 VEE
FLAG 160 272 VEE
FLAG 160 208 VCC
FLAG 64 352 0
FLAG 288 240 Out
FLAG -144 304 0
FLAG -320 16 0
FLAG -320 -64 In
FLAG -288 304 0
FLAG -384 288 0
FLAG -64 304 0
FLAG -544 224 In
SYMBOL OpAmps\\AD8066 160 176 R0
SYMATTR InstName U1
SYMBOL voltage -80 -96 R0
WINDOW 123 0 0 Left 0
WINDOW 39 0 0 Left 0
SYMATTR InstName V1
SYMATTR Value 12
SYMBOL voltage 96 -96 R0
WINDOW 123 0 0 Left 0
WINDOW 39 0 0 Left 0
SYMATTR InstName V2
SYMATTR Value 12
SYMBOL res 48 256 R0
SYMATTR InstName R1
SYMATTR Value 10k
SYMBOL res 240 96 R90
WINDOW 0 0 56 VBottom 2
WINDOW 3 32 56 VTop 2
SYMATTR InstName R2
SYMATTR Value 20k
SYMBOL res 64 208 R90
WINDOW 0 0 56 VBottom 2
WINDOW 3 32 56 VTop 2
SYMATTR InstName R3
SYMATTR Value 20k
SYMBOL res -160 208 R90
WINDOW 0 0 56 VBottom 2
WINDOW 3 32 56 VTop 2
SYMATTR InstName R4
SYMATTR Value 20k
SYMBOL res -416 208 R90
WINDOW 0 0 56 VBottom 2
WINDOW 3 32 56 VTop 2
SYMATTR InstName R5
SYMATTR Value 20k
SYMBOL res -160 208 R0
SYMATTR InstName R6
SYMATTR Value 1k
SYMBOL voltage -320 -80 R0
WINDOW 123 24 44 Left 2
WINDOW 39 0 0 Left 0
SYMATTR InstName V3
SYMATTR Value ""
SYMATTR Value2 AC 1
SYMBOL res -304 208 R0
SYMATTR InstName R7
SYMATTR Value 1k
SYMBOL cap -400 224 R0
SYMATTR InstName C1
SYMATTR Value 100p
SYMBOL cap -80 240 R0
SYMATTR InstName C2
SYMATTR Value 100p
TEXT -408 -120 Left 2 !.ac dec 20 10m 10Meg
